[TITLE]
;;Project Title/Notes
test

[OPTIONS]
;;Option             Value
FLOW_UNITS           LPS
INFILTRATION         GREEN_AMPT
FLOW_ROUTING         DYNWAVE
LINK_OFFSETS         ELEVATION
MIN_SLOPE            0
ALLOW_PONDING        YES
SKIP_STEADY_STATE    NO

START_DATE           11/13/2024
START_TIME           00:00:00
REPORT_START_DATE    11/13/2024
REPORT_START_TIME    00:01:00
END_DATE             11/13/2024
END_TIME             01:55:00
SWEEP_START          01/01
SWEEP_END            12/31
DRY_DAYS             7
REPORT_STEP          00:05:00
WET_STEP             00:01:00
DRY_STEP             01:00:00
ROUTING_STEP         0.6
RULE_STEP            00:00:01

INERTIAL_DAMPING     PARTIAL
NORMAL_FLOW_LIMITED  BOTH
FORCE_MAIN_EQUATION  H-W
VARIABLE_STEP        0.75
LENGTHENING_STEP     0
MIN_SURFAREA         0.85
MAX_TRIALS           8
HEAD_TOLERANCE       0.0015
SYS_FLOW_TOL         5
LAT_FLOW_TOL         5
MINIMUM_STEP         0.5
THREADS              1

[EVAPORATION]
;;Data Source    Parameters
;;-------------- ----------------
CONSTANT         0.0
DRY_ONLY         NO

[RAINGAGES]
;;Name           Format    Interval SCF      Source    
;;-------------- --------- ------ ------ ----------
PLUV1            VOLUME    0:05     1.0      TIMESERIES TS6             

[SUBCATCHMENTS]
;;Name           Rain Gage        Outlet           Area     %Imperv  Width    %Slope   CurbLen  SnowPack        
;;-------------- ---------------- ---------------- -------- -------- -------- -------- -------- ----------------
B140             PLUV1            P37              0.0662   40       18.75    9.74     0                        
B139             PLUV1            P55              0.0654   40       18.75    10       0                        
B141             PLUV1            P37              0.0315   40       18.75    9.74     0                        
B142             PLUV1            P37              0.0315   40       18.75    9.74     0                        
B144             PLUV1            P35              0.0315   40       18.75    9.74     0                        
B145             PLUV1            P35              0.0315   40       18.75    9.74     0                        
B146             PLUV1            P33              0.0315   40       18.75    9.74     0                        
B147             PLUV1            P33              0.0315   40       18.75    9.74     0                        
B148             PLUV1            P33              0.0315   40       18.75    9.74     0                        
B149             PLUV1            P31              0.0618   40       15.75    9.74     0                        
B108             PLUV1            P46              0.0315   40       18.75    1.29     0                        
B42              PLUV1            P13              0.0315   40       18.75    1        0                        
B40              PLUV1            P11              0.0315   40       18.75    1        0                        
B38              PLUV1            P11              0.0315   40       18.75    1        0                        
B36              PLUV1            P11              0.0315   40       18.75    1        0                        
B34              PLUV1            P9               0.0315   40       18.75    1        0                        
B32              PLUV1            P9               0.0315   40       18.75    1        0                        
B30              PLUV1            P9               0.0315   40       18.75    1        0                        
B9               PLUV1            P4               0.0315   40       18.75    1        0                        
B7               PLUV1            P2               0.0315   40       18.75    1        0                        
B5               PLUV1            P2               0.0315   40       18.75    1        0                        
B3               PLUV1            P2               0.0315   40       18.75    1        0                        
B1               PLUV1            P2               0.0315   40       18.75    1        0                        
B23              PLUV1            P6               0.0315   40       18.75    1        0                        
B21              PLUV1            P6               0.0315   40       18.75    1        0                        
B19              PLUV1            P6               0.0315   40       18.75    1        0                        
B17              PLUV1            P6               0.0315   40       18.75    1        0                        
B15              PLUV1            P4               0.0315   40       18.75    1        0                        
B13              PLUV1            P4               0.0315   40       18.75    1        0                        
B11              PLUV1            P4               0.0315   40       18.75    1        0                        
B129             PLUV1            P53              0.0315   40       18.75    10       0                        
B127             PLUV1            P53              0.0315   40       18.75    10       0                        
B125             PLUV1            P53              0.0315   40       18.75    10       0                        
B123             PLUV1            P53              0.0315   40       18.75    3.74     0                        
B121             PLUV1            P51              0.0315   40       18.75    3.74     0                        
B120             PLUV1            P51              0.0315   40       18.75    3.74     0                        
B119             PLUV1            P51              0.0315   40       18.75    3.74     0                        
B113             PLUV1            P47              0.0315   40       18.75    1.29     0                        
B111             PLUV1            P47              0.0315   40       18.75    1.29     0                        
B109             PLUV1            P45              0.0315   40       18.75    1.29     0                        
B107             PLUV1            P45              0.0315   40       18.75    1.29     0                        
B105             PLUV1            P45              0.0315   40       18.75    1.29     0                        
B103             PLUV1            P45              0.0315   40       18.75    1.29     0                        
B101             PLUV1            P43              0.0315   40       18.75    1.29     0                        
BB118            PLUV1            P49              0.0618   40       22.0     3.74     0                        
B99              PLUV1            P43              0.0618   40       18.75    1.29     0                        
B28              PLUV1            P7               0.0618   40       18.75    1        0                        
B115             PLUV1            P47              0.0315   40       18.75    1.29     0                        
B22              PLUV1            P5               0.0315   40       18.75    1        0                        
B20              PLUV1            P5               0.0315   40       18.75    1        0                        
B18              PLUV1            P5               0.0315   40       18.75    1        0                        
B16              PLUV1            P3               0.0315   40       18.75    1        0                        
B14              PLUV1            P3               0.0315   40       18.75    1        0                        
B12              PLUV1            P3               0.0315   40       18.75    1        0                        
B10              PLUV1            P3               0.0315   40       18.75    1        0                        
B8               PLUV1            P1               0.0315   40       18.75    1        0                        
B6               PLUV1            P1               0.0315   40       18.75    1        0                        
B4               PLUV1            P1               0.0315   40       18.75    1        0                        
B2               PLUV1            P1               0.0315   40       18.75    1        0                        
B29              PLUV1            P8               0.0315   40       18.75    1        0                        
B31              PLUV1            P8               0.0315   40       18.75    1        0                        
B33              PLUV1            P8               0.0315   40       18.75    1        0                        
B35.             PLUV1            P10              0.0315   40       18.75    1        0                        
B37              PLUV1            P10              0.0315   40       18.75    1        0                        
B39              PLUV1            P10              0.0315   40       18.75    1        0                        
B41              PLUV1            P12              0.0315   40       18.75    1        0                        
B43              PLUV1            P12              0.0315   40       18.75    1        0                        
B27              PLUV1            P8               0.0618   40       18.75    1        0                        
B25              PLUV1            P7               0.0618   40       18.75    1        0                        
B24              PLUV1            P5               0.0618   40       18.75    1        0                        
B67              PLUV1            P21              0.0618   40       18.75    1        0                        
B68              PLUV1            P19              0.0618   40       18.75    1        0                        
B98              PLUV1            P42              0.0618   40       18.75    1.29     0                        
B97              PLUV1            P41              0.0618   40       12.75    1.29     0                        
B46              PLUV1            P13              0.0420   40       18.75    1        0                        
B45              PLUV1            P12              0.0721   40       18.75    1        0                        
B47              PLUV1            P30              0.0738   40       18.75    1        0                        
B44              PLUV1            P13              0.042    40       18.75    1        0                        
B122             PLUV1            P50              0.0618   40       23.0     3.74     0                        
B124             PLUV1            P52              0.0315   40       18.75    3.74     0                        
B126             PLUV1            P52              0.0315   40       18.75    3.74     0                        
B128             PLUV1            P52              0.0315   40       18.75    3.74     0                        
B130             PLUV1            P54              0.0315   40       18.75    3.74     0                        
B132             PLUV1            P54              0.0315   40       18.75    10       0                        
B135             PLUV1            P54              0.0315   40       18.75    10       0                        
B137             PLUV1            P54              0.0315   40       18.75    10       0                        
BBB118           PLUV1            P48              0.0618   40       18.75    1.29     0                        
B48              PLUV1            P29              0.0618   40       18.75    1        0                        
BB117            PLUV1            P47              0.0618   40       18.75    1.29     0                        
B83              PLUV1            P18              0.0315   40       18.75    1        0                        
B81              PLUV1            P18              0.0315   40       18.75    1        0                        
B79              PLUV1            P18              0.0315   40       18.75    1        0                        
B77              PLUV1            P18              0.0315   40       18.75    1        0                        
B75              PLUV1            P18              0.0315   40       18.75    1        0                        
B73              PLUV1            P20              0.0315   40       18.75    1        0                        
B71              PLUV1            P20              0.0315   40       18.75    1        0                        
B69              PLUV1            P20              0.0315   40       18.75    1        0                        
B70              PLUV1            P19              0.0315   40       18.75    1        0                        
B72              PLUV1            P19              0.0315   40       18.75    1        0                        
B74              PLUV1            P19              0.0315   40       18.75    1        0                        
B76              PLUV1            P17              0.0315   40       18.75    1        0                        
B78              PLUV1            P17              0.0315   40       18.75    1        0                        
B80              PLUV1            P17              0.0315   40       18.75    1        0                        
B82              PLUV1            P17              0.0315   40       18.75    1        0                        
B84              PLUV1            P17              0.0315   40       18.75    1        0                        
B85              PLUV1            P40              0.0315   40       18.75    1.29     0                        
B86              PLUV1            P40              0.0315   40       18.75    1.29     0                        
B88              PLUV1            P40              0.0315   40       18.75    1.29     0                        
B90              PLUV1            P40              0.0315   40       18.75    1.29     0                        
B92              PLUV1            P42              0.0315   40       18.75    1.29     0                        
B94              PLUV1            P42              0.0315   40       18.75    1.29     0                        
B96              PLUV1            P42              0.0315   40       18.75    1.29     0                        
B95              PLUV1            P41              0.0315   40       18.75    1.29     0                        
B93              PLUV1            P41              0.0315   40       18.75    1.29     0                        
B91              PLUV1            P41              0.0315   40       18.75    1.29     0                        
B89              PLUV1            P39              0.0315   40       18.75    1.29     0                        
B87              PLUV1            P39              0.0315   40       18.75    1.29     0                        
B116             PLUV1            P48              0.0315   40       18.75    1.29     0                        
B114             PLUV1            P48              0.0315   40       18.75    1.29     0                        
B112             PLUV1            P48              0.0315   40       18.75    1.29     0                        
B110             PLUV1            P46              0.0315   40       18.75    1.29     0                        
B50              PLUV1            P29              0.0315   40       18.75    1        0                        
B52              PLUV1            P29              0.0315   40       18.75    1        0                        
B54              PLUV1            P27              0.0315   40       18.75    1        0                        
B56              PLUV1            P27              0.0315   40       18.75    1        0                        
B58              PLUV1            P27              0.0315   40       18.75    1        0                        
B60              PLUV1            P25              0.0315   40       18.75    1        0                        
B106             PLUV1            P46              0.0315   40       18.75    1.29     0                        
B104             PLUV1            P46              0.0315   40       18.75    1.29     0                        
B102             PLUV1            P44              0.0315   40       18.75    1.29     0                        
B100             PLUV1            P44              0.0618   40       18.75    1.29     0                        
B66              PLUV1            P23              0.0618   40       18.75    1        0                        
B62              PLUV1            P25              0.0315   40       18.75    1        0                        
B64              PLUV1            P25              0.0315   40       18.75    1        0                        
B65              PLUV1            P24              0.0618   40       18.75    1        0                        
B63              PLUV1            P26              0.0315   40       18.75    1        0                        
B61              PLUV1            P26              0.0315   40       18.75    1        0                        
B59              PLUV1            P26              0.0315   40       18.75    1        0                        
B57              PLUV1            P28              0.0315   40       18.75    1        0                        
B55              PLUV1            P28              0.0315   40       18.75    1        0                        
B53              PLUV1            P28              0.0315   40       18.75    1        0                        
B51              PLUV1            P30              0.0315   40       18.75    1        0                        
B49              PLUV1            P30              0.0315   40       18.75    1        0                        
B138             PLUV1            P53              0.0694   40       18.75    10       0                        
B188             PLUV1            P73              0.0677   40       18.75    6.88     0                        
B189             PLUV1            P71              0.0315   40       18.75    6.88     0                        
B190             PLUV1            P71              0.0315   40       18.75    6.88     0                        
B191             PLUV1            P71              0.0315   40       18.75    6.88     0                        
B192             PLUV1            P71              0.0315   40       18.75    6.88     0                        
B193             PLUV1            P69              0.0315   40       18.75    6.88     0                        
B194             PLUV1            P69              0.0618   40       18.75    6.88     0                        
B195             PLUV1            P67              0.0618   40       18.75    1.03     0                        
B196             PLUV1            P67              0.0315   40       18.75    1.03     0                        
B197             PLUV1            P67              0.0315   40       18.75    1.03     0                        
B198             PLUV1            P67              0.0315   40       18.75    1.03     0                        
B199             PLUV1            P66              0.0315   40       18.75    1.03     0                        
B204             PLUV1            P63              0.0618   40       18.75    1.03     0                        
B203             PLUV1            P64              0.0315   40       18.75    1.03     0                        
B202             PLUV1            P64              0.0315   40       18.75    1.03     0                        
B200             PLUV1            P66              0.0315   40       18.75    1.03     0                        
B201             PLUV1            P64              0.0315   40       18.75    1.03     0                        
B176             PLUV1            P72              0.0680   40       18.75    6.88     0                        
B177             PLUV1            P72              0.0315   40       18.75    6.88     0                        
B178             PLUV1            P72              0.0315   40       18.75    6.88     0                        
B179             PLUV1            P72              0.0315   40       18.75    6.88     0                        
B180             PLUV1            P70              0.0315   40       18.75    6.88     0                        
B181             PLUV1            P70              0.0315   40       18.75    6.88     0                        
B182             PLUV1            P70              0.0315   40       18.75    6.88     0                        
B183             PLUV1            P70              0.0315   40       18.75    1.03     0                        
B184             PLUV1            P68              0.0315   40       18.75    1.03     0                        
B185             PLUV1            P68              0.0315   40       18.75    1.03     0                        
B186             PLUV1            P68              0.0315   40       18.75    1.03     0                        
B187             PLUV1            P68              0.0618   40       18.75    1.03     0                        
B165             PLUV1            P82              0.0618   40       18.75    3.06     0                        
BB166            PLUV1            P82              0.0315   40       18.75    3.06     0                        
BB167            PLUV1            P82              0.0315   40       18.75    3.06     0                        
B168             PLUV1            P80              0.0315   40       18.75    9.33     0                        
B169             PLUV1            P80              0.0315   40       18.75    9.33     0                        
B170             PLUV1            P80              0.0315   40       18.75    9.33     0                        
B171             PLUV1            P80              0.0315   40       18.75    9.33     0                        
B172             PLUV1            P78              0.0315   40       18.75    9.33     0                        
B173             PLUV1            P78              0.0315   40       18.75    12.84    0                        
B174             PLUV1            P78              0.0315   40       18.75    12.84    0                        
B175             PLUV1            P77              0.0635   40       18.75    12.84    0                        
B150             PLUV1            P79              0.0636   40       18.75    12.84    0                        
B151             PLUV1            P87              0.0368   40       18.75    12.84    0                        
B152             PLUV1            P79              0.0368   40       18.75    12.84    0                        
B153             PLUV1            P87              0.0341   40       18.75    9.33     0                        
B154             PLUV1            P81              0.0356   40       18.75    9.33     0                        
B155             PLUV1            P86              0.0371   40       18.75    9.33     0                        
B157             PLUV1            P86              0.0323   40       18.75    9.33     0                        
B158             PLUV1            P81              0.0328   40       18.75    9.33     0                        
B159             PLUV1            P86              0.0350   40       18.75    3.06     0                        
B160             PLUV1            P81              0.0315   40       18.75    9.33     0                        
B161             PLUV1            P86              0.0408   40       18.75    3.06     0                        
B162             PLUV1            P83              0.0315   40       18.75    3.06     0                        
B163             PLUV1            P85              0.0719   40       18.75    3.06     0                        
B164             PLUV1            P83              0.0908   40       18.75    3.06     0                        
B210             PLUV1            P65              0.9544   40       138      1.03     0                        
B205             PLUV1            P62              0.0644   40       18.75    1.03     0                        
B206             PLUV1            P62              0.0345   40       18.75    1.03     0                        
B207             PLUV1            P62              0.0375   40       18.75    1.03     0                        
B208             PLUV1            P61              0.0416   40       18.75    1.03     0                        
B209             PLUV1            P61              0.0470   40       18.75    1.03     0                        
B211             PLUV1            P60              0.0691   40       18.75    1        0                        
B212             PLUV1            P59              0.0328   40       18.75    2.39     0                        
B213             PLUV1            P59              0.0371   40       18.75    2.39     0                        
B214             PLUV1            P59              0.0667   40       18.75    2.39     0                        
B215             PLUV1            P90              0.0524   40       18.75    4.16     0                        
B216             PLUV1            P90              0.0747   40       18.75    4.16     0                        
B217             PLUV1            P92              0.0315   40       18.75    1.79     0                        
B218             PLUV1            P92              0.0315   40       18.75    1.79     0                        
B219             PLUV1            P92              0.0315   40       18.75    1.79     0                        
B220             PLUV1            P92              0.0391   40       18.75    1.79     0                        
B221             PLUV1            P94              0.0874   40       18.75    6        0                        
B224             PLUV1            P96              0.0315   40       18.75    6        0                        
B223             PLUV1            P96              0.0315   40       18.75    6        0                        
B222             PLUV1            P96              0.053    40       18.75    2.57     0                        

[SUBAREAS]
;;Subcatchment   N-Imperv   N-Perv     S-Imperv   S-Perv     PctZero    RouteTo    PctRouted 
;;-------------- ---------- ---------- ---------- ---------- ---------- ---------- ----------
B140             0.0123     0.15       1.27       2.54       100        IMPERVIOUS 10        
B139             0.0124     0.15       1.27       2.54       100        IMPERVIOUS 10        
B141             0.013      0.15       1.27       2.54       100        IMPERVIOUS 10        
B142             0.013      0.15       1.27       2.54       100        IMPERVIOUS 10        
B144             0.013      0.15       1.27       2.54       100        IMPERVIOUS 10        
B145             0.013      0.15       1.27       2.54       100        IMPERVIOUS 10        
B146             0.013      0.15       1.27       2.54       100        IMPERVIOUS 10        
B147             0.013      0.15       1.27       2.54       100        IMPERVIOUS 10        
B148             0.013      0.15       1.27       2.54       100        IMPERVIOUS 10        
B149             0.013      0.15       1.27       2.54       100        IMPERVIOUS 10        
B108             0.013      0.15       1.27       2.54       100        IMPERVIOUS 10        
B42              0.013      0.15       1.27       2.54       100        IMPERVIOUS 10        
B40              0.013      0.15       1.27       2.54       100        IMPERVIOUS 10        
B38              0.013      0.15       1.27       2.54       100        IMPERVIOUS 10        
B36              0.013      0.15       1.27       2.54       100        IMPERVIOUS 10        
B34              0.013      0.15       1.27       2.54       100        IMPERVIOUS 10        
B32              0.013      0.15       1.27       2.54       100        IMPERVIOUS 10        
B30              0.013      0.15       1.27       2.54       100        IMPERVIOUS 10        
B9               0.013      0.15       1.27       2.54       100        IMPERVIOUS 10        
B7               0.013      0.15       1.27       2.54       100        OUTLET    
B5               0.013      0.15       1.27       2.54       100        IMPERVIOUS 10        
B3               0.013      0.15       1.27       2.54       100        IMPERVIOUS 10        
B1               0.013      0.15       1.27       2.54       100        OUTLET    
B23              0.013      0.15       1.27       2.54       100        OUTLET    
B21              0.013      0.15       1.27       2.54       100        IMPERVIOUS 10        
B19              0.013      0.15       1.27       2.54       100        IMPERVIOUS 10        
B17              0.013      0.15       1.27       2.54       100        IMPERVIOUS 10        
B15              0.013      0.15       1.27       2.54       100        IMPERVIOUS 10        
B13              0.013      0.15       1.27       2.54       100        IMPERVIOUS 10        
B11              0.013      0.15       1.27       2.54       100        IMPERVIOUS 10        
B129             0.013      0.15       1.27       2.54       100        IMPERVIOUS 10        
B127             0.013      0.15       1.27       2.54       100        IMPERVIOUS 10        
B125             0.013      0.15       1.27       2.54       100        IMPERVIOUS 10        
B123             0.013      0.15       1.27       2.54       100        IMPERVIOUS 10        
B121             0.013      0.15       1.27       2.54       100        IMPERVIOUS 10        